System Matpower Format/npcc_ny_lite_s11_dlr_summer_peak_q090_sensitivity.m
function mpc = npcc_ny_lite_s11_dlr_summer_peak_q090_sensitivity
%NPCC_NY_LITE_S11_DLR_SUMMER_PEAK_Q090_SENSITIVITY

%% MATPOWER Case Format : Version 2
mpc.version = '2';

%%-----  Power Flow Data  -----%%
%% system MVA base
mpc.baseMVA = 100;

%% bus data
%	bus_i	type	Pd	Qd	Gs	Bs	area	Vm	Va	baseKV	zone	Vmax	Vmin
mpc.bus = [
	37	2	0	0	0	0	2	0.98168327	18.3178854	345	70	1.1	0.9;
	38	2	0	0	0	0	2	1.00150882	23.0935701	345	70	1.1	0.9;
	39	2	458.73926	0	0	0	2	0.949827987	15.5504202	345	71	1.1	0.9;
	40	1	0	0	0	0	2	1.01024801	20.3470144	230	70	1.1	0.9;
	41	2	1763.06079	0	0	0	2	1.06541417	17.4983122	115	70	1.1	0.9;
	42	1	445.802514	0	0	0	2	1.09990866	22.0778985	115	70	1.1	0.9;
	43	1	0	0	0	0	2	1.02835195	23.1967303	345	69	1.1	0.9;
	44	1	0	0	0	0	2	0.983458486	23.4117086	230	69	1.1	0.9;
	45	1	1249.5819	0	0	0	2	0.982609658	20.5690086	115	69	1.1	0.9;
	46	1	14.4961546	0	0	0	2	0.966931892	62.2802333	115	68	1.1	0.9;
	47	1	332.781287	0	0	0	2	1.09998307	74.1158162	230	68	1.1	0.9;
	48	1	0	0	0	0	2	1.00319651	82.0457614	230	68	1.1	0.9;
	49	1	131.095658	0	0	0	2	0.962579843	68.4419934	115	68	1.1	0.9;
	50	1	0	0	0	0	2	1.09441355	25.2202522	345	67	1.1	0.9;
	51	1	1209.77452	0	0	0	2	1.09988174	23.3120493	115	67	1.1	0.9;
	52	1	0	0	0	0	2	1.09352256	18.2578675	345	66	1.1	0.9;
	53	1	1788.1464	0	0	0	2	1.09709257	14.3105846	115	66	1.1	0.9;
	54	1	19.9961721	0	0	0	2	1.09975872	22.028695	230	65	1.1	0.9;
	55	1	938.820282	0	0	0	2	1.09937052	19.3422378	230	65	1.1	0.9;
	56	1	198.780107	0	0	0	2	1.07551173	20.5966071	230	65	1.1	0.9;
	57	1	277.367591	0	0	0	2	1.08874558	17.3298202	115	65	1.1	0.9;
	58	1	97.0786567	0	0	0	2	1.07241834	16.9749142	230	65	1.1	0.9;
	59	1	814.767297	0	0	0	2	1.07177943	14.4282007	115	65	1.1	0.9;
	60	1	0	0	0	0	2	1.08678033	19.3125346	230	65	1.1	0.9;
	61	1	273.900495	0	0	0	2	1.08748162	18.6477048	115	65	1.1	0.9;
	62	1	0	0	0	0	2	1.07719166	17.1918445	230	65	1.1	0.9;
	63	1	0	0	0	0	2	1.06320258	12.4339024	230	67	1.1	0.9;
	64	1	236.659038	0	0	0	2	1.05976114	8.71488702	115	67	1.1	0.9;
	65	1	150.601206	0	0	0	2	1.07361078	10.7292079	115	67	1.1	0.9;
	66	1	0	0	0	0	2	1.06311063	15.4386746	345	67	1.1	0.9;
	67	1	0	0	0	0	2	1.06825087	14.379321	230	67	1.1	0.9;
	68	1	349.196203	0	0	0	2	1.06963163	12.6100053	115	67	1.1	0.9;
	69	1	0	0	0	0	2	1.05701229	17.7992228	345	67	1.1	0.9;
	70	1	0	0	0	0	2	1.07621973	16.0551447	230	67	1.1	0.9;
	71	1	613.989531	0	0	0	2	1.07717389	17.3936745	115	67	1.1	0.9;
	72	1	0	0	0	0	2	1.08122343	18.2903941	115	67	1.1	0.9;
	73	3	1146.84815	0	0	1200	3	0.925588965	10.347898	345	71	1.1	0.9;
	74	1	640.25	0	0	0	3	0.91163444	4.89975171	345	73	1.1	0.9;
	75	1	0	0	0	0	3	0.904060078	4.56626597	138	71	1.1	0.9;
	76	2	688.10889	0	0	0	3	0.903013015	4.53727985	345	71	1.1	0.9;
	77	1	0	0	0	0	3	0.908094637	4.16121159	345	73	1.1	0.9;
	78	1	1366.5224	0	0	0	3	0.900101536	0.0727082359	345	72	1.1	0.9;
	79	1	4603.60669	0	0	0	3	0.900815755	5.32553551	22	74	1.1	0.9;
	80	1	5208.3862	-14.4689848	0	0	3	0.904091809	-5.70522782	138	75	1.1	0.9;
	81	2	1023.02371	0	0	0	3	0.901021255	-1.96922053	345	74	1.1	0.9;
	82	1	4603.6067	0	0	0	3	0.900115341	-3.78849122	22	74	1.1	0.9;
	9001	1	0	0	0	0	3	0.944025551	14.3634391	345	71	1.1	0.9;
	9002	1	0	0	441.236871	-13.0688419	3	0.915154532	6.12944257	345	71	1.1	0.9;
	9003	1	0	-0	0	0	3	0.90023619	2.13063743	345	75	1.1	0.9;
];

%% generator data
%	bus	Pg	Qg	Qmax	Qmin	Vg	mBase	status	Pmax	Pmin	Pc1	Pc2	Qc1min	Qc1max	Qc2min	Qc2max	ramp_agc	ramp_10	ramp_30	ramp_q	apf
mpc.gen = [
	37	723.288487	508.669684	514.05	-431.2	0.98168327	100	1	723.3	253.7	0	0	0	0	0	0	0	0	0	0	0;
	43	650.560507	-87.292	-87.292	-87.292	1.02835195	100	1	869.7	70.1	0	0	0	0	0	0	0	0	0	0	0;
	9003	3257.08354	-934.134	-934.134	-934.134	0.90023619	100	1	3257.1	1440.3	0	0	0	0	0	0	0	0	0	0	0;
	80	1176.9831	508.037663	765.2	-647.5	0.904091809	100	1	1177	120.6	0	0	0	0	0	0	0	0	0	0	0;
	44	844.342378	-137.048	-137.048	-137.048	0.983458486	100	1	1135.5	73.1	0	0	0	0	0	0	0	0	0	0	0;
	72	192.994893	43.3892025	134.4	-106.2	1.08122343	100	1	193	16.6	0	0	0	0	0	0	0	0	0	0	0;
	68	271.693898	4.47155184	192.75	-167.92	1.06963163	100	1	271.7	55.3	0	0	0	0	0	0	0	0	0	0	0;
	79	5831.18804	12.9017965	4183.525	-3513.15	0.900815755	100	1	5831.2	1815.2	0	0	0	0	0	0	0	0	0	0	0;
	65	111.997432	1.95360198	72.8	-61.6	1.07361078	100	1	112	32	0	0	0	0	0	0	0	0	0	0	0;
	56	338.454685	8.99586116	255.25	-220.84	1.07551173	100	1	351.5	142.7	0	0	0	0	0	0	0	0	0	0	0;
	50	3044.58201	2185.60494	2188.425	-1846.05	1.09441355	100	1	3044.6	1919.5	0	0	0	0	0	0	0	0	0	0	0;
	47	70.3945732	316.848352	363.8	-287	1.09998307	100	1	521.4	1.5	0	0	0	0	0	0	0	0	0	0	0;
	57	213.066126	12.1547501	165.975	-154.91	1.08874558	100	1	221.3	104	0	0	0	0	0	0	0	0	0	0	0;
	61	306.872009	-18.0113287	230.75	-191.32	1.08748162	100	1	323.1	63	0	0	0	0	0	0	0	0	0	0	0;
	60	163.054787	16.7714003	121.3	-95.3	1.08678033	100	1	173.3	9	0	0	0	0	0	0	0	0	0	0	0;
	42	1546.78679	241.432692	1160.1	-1082.76	1.09990866	100	1	1546.8	981.4	0	0	0	0	0	0	0	0	0	0	0;
	81	1554.78409	-198.858316	1102.75	-898.04	0.901021255	100	1	1554.8	701.7	0	0	0	0	0	0	0	0	0	0	0;
	53	724.993617	95.7654137	510.95	-408.7	1.09709257	100	1	725	498.1	0	0	0	0	0	0	0	0	0	0	0;
	71	47.6987497	15.0974679	33.4	-26.2	1.07717389	100	1	47.7	42	0	0	0	0	0	0	0	0	0	0	0;
	56	88.5144226	0	0	0	1.07551173	100	1	94.4	0	0	0	0	0	0	0	0	0	0	0	0;
	61	0	4.06196773	66.1	-51.9	1.08748162	100	1	0	0	0	0	0	0	0	0	0	0	0	0	0;
	53	0	25.1332059	50	0	1.09709257	100	1	0	0	0	0	0	0	0	0	0	0	0	0	0;
	51	883.293726	154.902405	618.3	-485.8	1.09988174	100	1	883.3	662	0	0	0	0	0	0	0	0	0	0	0;
	47	0	70.4470131	100	0	1.09998307	100	1	0	0	0	0	0	0	0	0	0	0	0	0	0;
	37	0	149.146208	150	0	0.98168327	100	1	0	0	0	0	0	0	0	0	0	0	0	0	0;
	41	338.793336	253.406578	254.1	-237.16	1.06541417	100	1	338.8	101	0	0	0	0	0	0	0	0	0	0	0;
	39	0	19.1757252	250	0	0.949827987	100	1	0	0	0	0	0	0	0	0	0	0	0	0	0;
	76	723.786517	-178.333366	506.8	-398	0.903013015	100	1	723.8	122	0	0	0	0	0	0	0	0	0	0	0;
	73	2011.98212	-1219.57422	1384.9	-1222.2	0.925588965	100	1	2012	666	0	0	0	0	0	0	0	0	0	0	0;
	73	0	0.0302149961	30	0	0.925588965	100	1	0	0	0	0	0	0	0	0	0	0	0	0	0;
	75	59.6979824	12.7156664	41.8	-32.8	0.904060078	100	1	59.7	7	0	0	0	0	0	0	0	0	0	0	0;
	81	0	192.199044	550	0	0.901021255	100	1	0	0	0	0	0	0	0	0	0	0	0	0	0;
	82	1247.48491	190.929851	873.3	-686.1	0.900115341	100	1	1247.5	495.5	0	0	0	0	0	0	0	0	0	0	0;
	9003	0	954.222	954.222	954.222	0.90023619	100	1	0	0	0	0	0	0	0	0	0	0	0	0	0;
	48	14.1125493	74.5363673	74.6	-58.6	1.00319651	100	1	106.5	0	0	0	0	0	0	0	0	0	0	0	0;
	39	1264.78962	-738.912661	946.4	-878.92	0.949827987	100	1	1264.8	856	0	0	0	0	0	0	0	0	0	0	0;
	76	0	24.2779216	100	0	0.903013015	100	1	0	0	0	0	0	0	0	0	0	0	0	0	0;
	38	999.982649	99.7519059	700	-550	1.00150882	100	1	1000	4	0	0	0	0	0	0	0	0	0	0	0;
	43	0	-721.356	-721.356	-721.356	1.02835195	100	1	0	0	0	0	0	0	0	0	0	0	0	0	0;
	54	1639.07592	-10.6074467	1242.9	-976.2	1.09975872	100	1	1775.1	15	0	0	0	0	0	0	0	0	0	0	0;
	55	830.441516	-5.53375028	626	-491.6	1.09937052	100	1	894	10	0	0	0	0	0	0	0	0	0	0	0;
	48	1450.00002	0	0	0	1.00319651	100	1	1450.001	1449.999	0	0	0	0	0	0	0	0	0	0	0;
	37	-234.943956	0	0	0	0.98168327	100	1	-234.943	-234.945	0	0	0	0	0	0	0	0	0	0	0;
	73	-352.415955	0	0	0	0.925588965	100	1	-352.415	-352.417	0	0	0	0	0	0	0	0	0	0	0;
	54	-386.039956	0	0	0	1.09975872	100	1	-386.039	-386.041	0	0	0	0	0	0	0	0	0	0	0;
	66	-75.5229539	0	0	0	1.06311063	100	1	-75.522	-75.524	0	0	0	0	0	0	0	0	0	0	0;
	67	-32.3669537	0	0	0	1.06825087	100	1	-32.366	-32.368	0	0	0	0	0	0	0	0	0	0	0;
	75	-53.9449546	0	0	0	0.904060078	100	1	-53.944	-53.946	0	0	0	0	0	0	0	0	0	0	0;
	81	-53.9449536	0	0	0	0.901021255	100	1	-53.944	-53.946	0	0	0	0	0	0	0	0	0	0	0;
];

%% branch data
%	fbus	tbus	r	x	b	rateA	rateB	rateC	ratio	angle	status	angmin	angmax	Pf	Qf	Pt	Qt
mpc.branch = [
	37	38	0.0016	0.0493662685	0.25	2500	0	0	0	0	1	-360	360	-166.6867	-39.1542	167.1602	29.1793;
	37	39	8e-05	0.00159134742	0.72	2500	0	0	0	0	1	-360	360	2923.8949	1851.7686	-2913.8437	-1719.0041;
	37	40	0.0009	0.0315	0.06	2500	0	0	0	0	1	-360	360	-113.8710	-86.6842	114.0577	87.2646;
	37	43	0.00013	0.00404288264	1.965	2500	0	0	0	0	1	-360	360	-2154.9926	-1068.1143	2162.5354	1104.1053;
	38	69	0.0043	0.0485	0.79	2500	0	0	0	0	1	-360	360	190.5685	-161.8161	-188.3714	102.8451;
	39	73	0.00019	0.00393535917	0.435	2500	0	0	0	0	1	-360	360	2053.5922	558.2873	-2044.0072	-398.0148;
	39	73	0.00019	0.00393535917	0.435	2500	0	0	0	0	1	-360	360	2053.5922	558.2873	-2044.0072	-398.0148;
	40	44	0.0008	0.0113974883	0.6	2500	0	0	0	0	1	-360	360	-446.3085	250.6324	448.4899	-279.1880;
	41	42	0.0018	0.0089	0.07	2500	0	0	0	0	1	-360	360	-1082.0511	-156.0258	1100.9843	241.4327;
	41	45	0.0776	0.2241	0.13	2500	0	0	0	0	1	-360	360	-9.9655	36.1102	11.3263	-45.8344;
	43	44	0	0.011	0	2500	0	0	0	0	1	-360	360	-34.4966	419.7582	34.4966	-401.3067;
	43	50	0.00025	0.00576325823	0.6	2500	0	0	0	0	1	-360	360	-738.7391	-1166.2557	743.0722	1198.4883;
	43	50	0.00025	0.00576325823	0.6	2500	0	0	0	0	1	-360	360	-738.7391	-1166.2557	743.0722	1198.4883;
	44	45	0	0.00440846246	0	2500	0	0	0	0	1	-360	360	1087.1266	45.9102	-1087.1266	8.0545;
	44	48	0.015	0.105	0.79	2500	0	0	0	0	1	-360	360	-725.7708	497.5365	851.9756	307.9407;
	45	46	0.1235	0.3548	0.16	2500	0	0	0	0	1	-360	360	-136.5018	112.0143	178.6738	-6.0632;
	45	51	0.0605	0.1896	0.08	2500	0	0	0	0	1	-360	360	-42.1705	-50.5294	44.6494	49.5971;
	45	71	0.1751	0.5575	0.12	2500	0	0	0	0	1	-360	360	4.8906	-23.7049	-4.2654	12.9406;
	46	47	0.0632	0.121	0.05	2500	0	0	0	0	1	-360	360	-177.6091	2.7945	198.9502	32.7020;
	46	49	0.164	0.578	0.06	2500	0	0	0	0	1	-360	360	-15.5609	3.2687	16.0504	-7.1282;
	47	48	0	0.033	0	2500	0	0	0	0	1	-360	360	-461.3369	354.5933	461.3369	-262.2537;
	50	51	0	0.00445147185	0	2500	0	0	0	0	1	-360	360	900.4206	-119.4425	-900.4206	150.1050;
	50	52	0.002	0.022	1.28	2500	0	0	0	0	1	-360	360	658.0170	-91.9291	-650.7830	18.3164;
	51	53	0.0844	0.2161	0.22	2500	0	0	0	0	1	-360	360	78.6137	-35.7140	-73.9517	21.1037;
	51	72	0.0051	0.0232	0.3	2500	0	0	0	0	1	-360	360	450.6767	-9.0857	-442.1106	12.3714;
	52	53	0.00014	0.00834382162	0	2500	0	0	0	0	1	-360	360	989.2873	-29.2789	-988.1405	97.6283;
	53	55	0.03	0.107	0.3	789.941803	0	0	0	0	1	-360	360	-91.1357	9.5061	93.3952	-37.6305;
	53	65	0.035	0.08	0.05	2500	0	0	0	0	1	-360	360	90.0751	-7.3395	-87.7103	6.8541;
	54	56	0.01	0.008	0.07	789.941803	0	0	0	0	1	-360	360	309.0478	-52.6017	-300.9574	50.7923;
	54	62	0.008	0.069	0.13	789.941803	0	0	0	0	1	-360	360	147.6598	17.1012	-146.1764	-19.7106;
	55	57	0.0074	0.04	0.02	789.941803	0	0	0	0	1	-360	360	107.1556	10.0150	-106.4448	-8.5672;
	55	59	0.016	0.0817	0.04	789.941803	0	0	0	0	1	-360	360	126.9799	15.1434	-124.8046	-8.7501;
	56	58	0.002	0.015	0.11	2500	0	0	0	0	1	-360	360	482.1553	-33.1131	-478.1234	50.6648;
	57	59	0.014	0.068	0.03	2500	0	0	0	0	1	-360	360	89.1345	9.2352	-88.1818	-8.1091;
	58	60	0.0035	0.0344	0.27	2500	0	0	0	0	1	-360	360	-140.9995	-43.1342	141.6278	17.8379;
	58	62	0.002	0.018	0.03	2500	0	0	0	0	1	-360	360	-27.1186	-27.1048	27.1426	23.8551;
	59	61	0.068	0.143	0.06	2500	0	0	0	0	1	-360	360	-52.6181	12.0156	54.3985	-15.2653;
	62	63	0.0129	0.0803	0.15	2500	0	0	0	0	1	-360	360	119.0339	-4.1445	-117.4563	-3.2162;
	63	64	0	0.046	0	2500	0	0	0	0	1	-360	360	158.8790	13.1124	-158.8790	-2.7703;
	63	67	0.012	0.093	0.18	2500	0	0	0	0	1	-360	360	-41.4227	-9.8962	41.6048	-9.1361;
	64	65	0.035	0.08	0.05	2500	0	0	0	0	1	-360	360	-48.3731	0.8877	49.1065	-4.9005;
	64	68	0.0988	0.231	0.13	2500	0	0	0	0	1	-360	360	-29.4070	1.8826	30.2419	-14.6674;
	66	67	0	0.0231	0	2500	0	0	0	0	1	-360	360	90.8936	-22.8162	-90.8936	24.6112;
	66	69	0.0018	0.0274	0.27	2500	0	0	0	0	1	-360	360	-166.4166	22.8162	166.8807	-46.0916;
	67	68	0	0.049	0	2500	0	0	0	0	1	-360	360	71.9988	-1.8984	-71.9988	4.1259;
	67	70	0.007	0.0619	0.12	2500	0	0	0	0	1	-360	360	-55.0770	-13.5766	55.2658	1.4501;
	68	71	0.1203	0.2048	0.07	2500	0	0	0	0	1	-360	360	-35.7454	15.0131	37.4692	-20.1439;
	69	71	0	0.0375	0	2500	0	0	0	0	1	-360	360	21.4907	-56.7534	-21.4907	57.9895;
	70	71	0	0.049	0	2500	0	0	0	0	1	-360	360	-55.2658	-1.4501	55.2658	2.7431;
	71	72	0.00053	0.00290313381	0.15	2500	0	0	0	0	1	-360	360	-633.2697	-38.4319	635.1055	31.0178;
	73	74	0.00022	0.0042149202	0.51	2500	0	0	0	0	1	-360	360	1916.2271	275.0108	-1906.5715	-133.0602;
	73	74	0.00022	0.0042149202	0.51	2500	0	0	0	0	1	-360	360	1916.2271	275.0108	-1906.5715	-133.0602;
	74	77	0.0003	0.0043	0.08	2500	0	0	0	0	1	-360	360	252.2743	55.7212	-252.0320	-58.8708;
	74	78	0.0005	0.0045	0.32	2500	0	0	0	0	1	-360	360	1548.4499	112.9667	-1533.9288	-8.5365;
	74	78	0.0005	0.0045	0.32	2500	0	0	0	0	1	-360	360	1548.4499	112.9667	-1533.9288	-8.5365;
	76	77	0.003	0.0068	1.37	2500	0	0	0	0	1	-360	360	41.4304	-141.3574	-41.0983	29.7655;
	78	79	0.0003	0.0153	0	2500	0	0	0	0	1	-360	360	-484.6342	27.5566	485.5067	16.9411;
	78	80	0.00135	0.0125157324	0.75	2500	0	0	0	0	1	-360	360	647.5123	-95.8892	-640.4545	100.2878;
	78	81	0.0005	0.0276	0	2500	0	0	0	0	1	-360	360	104.6443	-3.0293	-104.5767	6.7628;
	78	82	5e-05	0.00662344603	0	2500	0	0	0	0	1	-360	360	823.8753	21.3588	-823.4561	34.1697;
	40	41	0	0.0161	0	2500	0	0	1	0	1	-360	360	332.2508	-337.8971	-332.2508	373.3222;
	49	48	0.0156	0.1536	0	2500	0	0	1	0	1	-360	360	-147.1460	7.1282	150.8000	28.8494;
	54	52	0.002	0.0233	0	789.941803	0	0	1	0	1	-360	360	340.4227	11.3879	-338.5042	10.9625;
	54	55	0	0.013	0	2500	0	0	1	0	1	-360	360	435.9095	13.5053	-435.9095	6.9384;
	56	57	0	0.142	0	2500	0	0	1	0	1	-360	360	46.9911	-8.6834	-46.9911	11.4867;
	58	59	0	0.0093	0	2500	0	0	1	0	1	-360	360	549.1629	19.5743	-549.1629	4.8436;
	60	61	0	0.064	0	2500	0	0	1	0	1	-360	360	21.4270	-1.0665	-21.4270	1.3159;
	75	76	0.0001	0.0074	0	2500	0	0	1	0	1	-360	360	5.7530	12.7157	-5.7528	-12.6980;
	38	39	0.00131	0.01997	0.51614	1216	2454	1804	0	0	1	-360	360	642.2539	232.3886	-635.9954	-186.1488;
	73	9002	0.00081	0.01237	0.31971	1216	2454	1804	0	0	1	-360	360	507.8605	49.6772	-505.3840	-38.9393;
	9002	74	0.00037	0.00563	0.14565	1216	2454	1804	0	0	1	-360	360	320.6143	33.4620	-320.1533	-38.5982;
	74	78	0.0009	0.015	0	5000	5000	5000	0	0	1	-360	360	464.0253	61.6526	-461.6524	-22.1039;
	77	78	0.0012	0.02	0	5000	5000	5000	0	0	1	-360	360	293.1303	29.1053	-291.8676	-8.0603;
	78	81	0.00072	0.012	0	5000	5000	5000	0	0	1	-360	360	239.7886	-16.9945	-239.2750	25.5537;
	78	79	0.0006	0.01	0	5000	5000	5000	0	0	1	-360	360	-738.0028	71.9028	742.0747	-4.0393;
	78	82	6e-05	0.00215046949	0	5000	5000	5000	0	0	1	-360	360	2537.4340	14.1442	-2532.6656	156.7602;
	78	9003	0.00012	0.00430093898	0	5000	5000	5000	0	0	1	-360	360	-675.7623	28.1876	676.4399	-3.9035;
	9003	80	0.00012	0.00430093898	0	5000	5000	5000	0	0	1	-360	360	2580.6437	23.9915	-2570.7818	329.4715;
	81	80	0.00018	0.00645140847	0	5000	5000	5000	0	0	1	-360	360	821.6671	-38.9758	-820.1669	92.7473;
	39	9001	0.00021	0.00752664322	0	5000	5000	5000	0	0	1	-360	360	248.7050	68.8414	-248.5500	-63.2856;
	9001	73	0.0015	0.025	0	5000	5000	5000	0	0	1	-360	360	248.5500	63.2856	-247.4428	-44.8320;
	73	9002	0.00081	0.01237	0.31972	1216	2454	1804	0	0	1	-360	360	507.8605	49.6768	-505.3840	-38.9397;
	9002	74	0.00037	0.00563	0.14542	1216	2454	1804	0	0	1	-360	360	320.6143	33.4716	-320.1533	-38.5886;
];

%%-----  OPF Data  -----%%
%% generator cost data
%	1	startup	shutdown	n	x1	y1	...	xn	yn
%	2	startup	shutdown	n	c(n-1)	...	c0
mpc.gencost = [
	2	0	0	2	0	0;
	2	0	0	2	0	0;
	2	0	0	2	0	0;
	2	0	0	2	0	0;
	2	0	0	2	0	0;
	2	0	0	2	0	0;
	2	0	0	2	0	0;
	2	0	0	2	0	0;
	2	0	0	2	0	0;
	2	0	0	2	0	0;
	2	0	0	2	0	0;
	2	0	0	2	0	0;
	2	0	0	2	0	0;
	2	0	0	2	0	0;
	2	0	0	2	0	0;
	2	0	0	2	0	0;
	2	0	0	2	0	0;
	2	0	0	2	0	0;
	2	0	0	2	0	0;
	2	0	0	2	0	0;
	2	0	0	2	0	0;
	2	0	0	2	0	0;
	2	0	0	2	0	0;
	2	0	0	2	0	0;
	2	0	0	2	0	0;
	2	0	0	2	0	0;
	2	0	0	2	0	0;
	2	0	0	2	0	0;
	2	0	0	2	0	0;
	2	0	0	2	0	0;
	2	0	0	2	0	0;
	2	0	0	2	0	0;
	2	0	0	2	0	0;
	2	0	0	2	0	0;
	2	0	0	2	0	0;
	2	0	0	2	0	0;
	2	0	0	2	0	0;
	2	0	0	2	0	0;
	2	0	0	2	0	0;
	2	0	0	2	0	0;
	2	0	0	2	0	0;
	2	0	0	2	0	0;
	2	0	0	2	0	0;
	2	0	0	2	0	0;
	2	0	0	2	0	0;
	2	0	0	2	0	0;
	2	0	0	2	0	0;
	2	0	0	2	0	0;
	2	0	0	2	0	0;
];

%% generator unit type (see GENTYPES)
mpc.gentype = {
	'AG';
	'AG';
	'AG';
	'AG';
	'AG';
	'AG';
	'AG';
	'AG';
	'AG';
	'AG';
	'AG';
	'AG';
	'AG';
	'AG';
	'AG';
	'AG';
	'AG';
	'AG';
	'AG';
	'AG';
	'AG';
	'AG';
	'AG';
	'AG';
	'AG';
	'AG';
	'AG';
	'AG';
	'AG';
	'AG';
	'AG';
	'AG';
	'AG';
	'AG';
	'AG';
	'AG';
	'AG';
	'AG';
	'AG';
	'AG';
	'AG';
	'EX';
	'EX';
	'EX';
	'EX';
	'EX';
	'EX';
	'EX';
	'EX';
};

%% generator fuel type (see GENFUELS)
mpc.genfuel = {
	'aggregate_pv_generator';
	'aggregate_pv_generator';
	'aggregate_pv_generator';
	'aggregate_pv_generator';
	'aggregate_pv_generator';
	'aggregate_pv_generator';
	'aggregate_pv_generator';
	'aggregate_pv_generator';
	'aggregate_pv_generator';
	'aggregate_pv_generator';
	'aggregate_pv_generator';
	'aggregate_pv_generator';
	'aggregate_pv_generator';
	'aggregate_pv_generator';
	'aggregate_pv_generator';
	'aggregate_pv_generator';
	'aggregate_pv_generator';
	'aggregate_pv_generator';
	'aggregate_pv_generator';
	'aggregate_pv_generator_p_injection';
	'aggregate_pv_generator_remote_q_control';
	'controllable_q_device';
	'aggregate_pv_generator';
	'controllable_q_device';
	'controllable_q_device';
	'aggregate_pv_generator';
	'controllable_q_device';
	'aggregate_pv_generator';
	'aggregate_pv_generator';
	'controllable_q_device';
	'aggregate_pv_generator';
	'controllable_q_device';
	'aggregate_pv_generator';
	'controllable_q_device';
	'aggregate_pv_generator';
	'aggregate_pv_generator';
	'controllable_q_device';
	'aggregate_pv_generator';
	'reference_boundary_equivalent';
	'aggregate_pv_generator';
	'aggregate_pv_generator';
	'external_schedule';
	'external_schedule';
	'external_schedule';
	'external_schedule';
	'external_schedule';
	'external_schedule';
	'external_schedule';
	'external_schedule';
};

%% bus names
mpc.bus_name = {
	'NEW SEATHED ';
	'GILBOA      ';
	'LEEDS       ';
	'NEW SEATHED ';
	'ROTTERDAM   ';
	'ALBANY      ';
	'EDIC        ';
	'PORTER      ';
	'PORTER      ';
	'COLTON      ';
	'MOSES W     ';
	'MOSES E     ';
	'PLATTSBURGH ';
	'CLAY        ';
	'CLAY        ';
	'ROCHESTER   ';
	'ROCHESTER   ';
	'NIAGARA W   ';
	'NIAGARA E   ';
	'HUNTLEY     ';
	'HUNTLEY     ';
	'GARDENVILLE ';
	'GARDENVILLE ';
	'DUNKIRK     ';
	'DUNKIRK     ';
	'STOLLE RD   ';
	'MEYER       ';
	'MEYER       ';
	'GESONIDGE   ';
	'WATERCURE   ';
	'WRHL        ';
	'HILLSIDE    ';
	'BINGHAMTON  ';
	'BINGHAMTON  ';
	'BINGHAMTON  ';
	'LAPEER      ';
	'PLEASANT VLY';
	'MILLWOOD    ';
	'RAMAPO      ';
	'RAMAPO      ';
	'BUCHANAN    ';
	'CE UG       ';
	'RAV A-3     ';
	'NORTHPORT   ';
	'GOETHALS    ';
	'AK-3        ';
	'KNICKERBOCKER';
	'WOOD STREET';
	'EAST GARDEN CITY';
};
